<?xml version="1.0" encoding="UTF-8"?>

<!-- generated on Fri Nov 24 09:20:46 2017 by SUMO duarouter Version 0.30.0
<?xml version="1.0" encoding="UTF-8"?>

<configuration xmlns:xsi="http://www.w3.org/2001/XMLSchema-instance" xsi:noNamespaceSchemaLocation="http://sumo.dlr.de/xsd/duarouterConfiguration.xsd">

    <input>
        <net-file value="etri/etri.net.xml"/>
        <trip-files value="data/route.trips.xml"/>
    </input>

    <output>
        <output-file value="data/route.rou.xml"/>
    </output>

    <processing>
        <ignore-errors value="true"/>
    </processing>

    <time>
        <begin value="0"/>
        <end value="3600.0"/>
    </time>

    <report>
        <no-warnings value="true"/>
        <no-step-log value="true"/>
    </report>

</configuration>
-->

<routes xmlns:xsi="http://www.w3.org/2001/XMLSchema-instance" xsi:noNamespaceSchemaLocation="http://sumo.dlr.de/xsd/routes_file.xsd">
    <vType id="passenger" vClass="passenger"/>
    <vehicle id="test" type="passenger" depart="0.00" departLane="best">
        <route edges="-571707297 -571701600 572712257 -572712258 -572702641 572700370 572700377 -572700320 572700319 572700331 -572701205 572701204 -572700291 572700290 572701016 572701918 -572701917 572708975 -572708974 -572700235 -572700218 -572700196 -572700187 572707024 -572707025 -572700184 572700185 -572700178 572700179 -572700190 572700189 572701769 572708819 -572708818 572708815 -572708816 572708826 -572708827 -572708814 572708835 -572708834 572717858 -572717859 -572701878 572701878"/>
    </vehicle>
    <vehicle id="veh0" type="passenger" depart="0.00" departLane="best">
        <route edges="572702238 572712738 -572712737 572712734 -572712735 -572712732 572711336 -572711337 572712740 572712743 -572712742 572712750 -572712749 572718027 572718026 -572718029 572717988 572717991 572717994 572718047 -572718048 572718044 -572718045 -572718038 572700601 -572700553 572710613 -572710614 -572700529 -572700483 -572700452 -572700400 572700402 -572700385 572704556 -572704555 572716235 -572716234 572707309 -572707308 572700335 -572700274 572700272 572701195 572708129 572718181 -572718180 572700241 -572700238 572700237 572700271 572701173 572708351 -572708352 -572702705 572703408 572709049 -572709048 572700276 572700841 572708877 -572708874 -572708876"/>
    </vehicle>
    <vehicle id="veh1" type="passenger" depart="1.00" departLane="best">
        <route edges="572712860 -572712861 572712857 -572712862 -572712864 572705185 -572705184 572716296 -572716297 572701291 -572714645 -572711307 572717963 -572717964 -572717959 -572700951 572706798 -572702714 572700639 572700661 572712712 572712716 -572712717 -572712714 572700683 572700730 572712698 -572712697"/>
    </vehicle>
    <vehicle id="veh2" type="passenger" depart="2.00" departLane="best">
        <route edges="-572708997 572702008 572708912 -572708913 -572703026 572700325 572702003 -572702002 -572700323 572700322 572708585 -572708586 572700355 -572701554 572702861 -572702860 572707140 -572707141 572710804 572712519 -572712518 572700396 572710962 -572710963 572710886 -572710885 572705164 -572705170 572711071 -572711070 572711067 572717475 -572717476 -572705191 572704967 -572704966 -572701634 572704964 572705178 572717474 -572717473 572705184 -572705185 572712864 -572712863 572712897 -572712898 -572712895 -572712893 -572712891 -572711101 572711090 -572711091 572712229"/>
    </vehicle>
    <vehicle id="veh3" type="passenger" depart="3.00" departLane="best">
        <route edges="-572701105 572702858 -572702857 572716513 -572716514 572703431 -572703432 -572703415 572701776 -572701777 -572701774 -572700183 572706679 -572706680 572715283 -572715282 572709028 -572709029 -572700168 572700167 572700192 -572700191 572708828 -572708829 572708816 -572708815 572708818 -572708819 -572701769 -572700189 572700190 -572700179 572700178 -572700185 572700184 572707025 -572707024 572700187 572700196 572700218 572700235 572708974 -572708975 572701917 -572701918 -572701016 -572700290 572700291 -572701204 572701205 -572700331 572702013 -572702014 572712541 -572712542 572700397 -572700412 572702648 -572702649 -572701548 -572700447 572700445 572705167 572713567 -572713567 -572705167"/>
    </vehicle>
    <vehicle id="veh4" type="passenger" depart="4.00" departLane="best">
        <route edges="-572705499 572705504 -572705505 572705759 -572705760 -572705514 572705753 -572705754 -572705694 -572705693 572705720 572706803 -572706804 -572705922 572705924 -572705925 -572702064 -572700088 -572700083 -572700079 -572700074 572700076 572706779 -572714635 -572701767 572700073 -572700095 572713325 572700098 572717612 -572717611 572714146 -572714147 572716291 -572716292 -572708082 572714656 -572714655 572708048 -572708049 -572704483 -572700151 572708098 -572708099 572700171 -572700163 572700164 -572717693 -572700188 572701836 -572701837 572713375 -572713376 572704468 -572704469 572704454 -572704455 572704444 572704461 572708544 -572708544"/>
    </vehicle>
    <vehicle id="veh5" type="passenger" depart="5.00" departLane="best">
        <route edges="-572712856 572705186 572712858 572712857 -572712862 -572712864 572705185 -572705184 572716296 -572716297 572701291 -572714645 -572711307 572717963 -572717964 -572717959 -572700951 572706798 -572706800 -572700626 572700628 572705260 -572705259 572706891 -572718032 572700979 -572700664 572700663 -572706925 572700642 572706684 572704996 -572706893 572712563 -572712562 572706932 572706682 572705619 572707014 572705059 572714118 572701797 -572701798 -572700246 572704878 572715391 -572715390 -572700223 572700224 -572715241 572700269 572701175 -572700220 572700219 -572700266 572700267 572706874 572706876 -572706875 572707286 572707283 572707284 -572707285 572709190"/>
    </vehicle>
    <vehicle id="veh6" type="passenger" depart="6.00" departLane="best">
        <route edges="-572701061 572701062 572711119 -572711120 572707358 572711122 572711137 572711142 -572711141 572711128 -572711127 572711185"/>
    </vehicle>
    <vehicle id="veh7" type="passenger" depart="7.00" departLane="best">
        <route edges="-572711092 572711088 -572711087 572707332 572711099 -572711100 -572707337 572707343 -572707342 572705180 -572705181 572712863 -572712864 572705185 -572705184 572716296 -572716297 572701291 -572700475 572711079 -572711080 -572702837 572711067 572717475 -572717476 -572705191 572704967 572704969 572706669 572702645 -572702646 572705174 572711060 -572711059 -572705165 572700447 572701548 572702649 -572702648 572700412 -572700397 572712542 -572712541 572702014 -572702013 572700331 -572701205 572701204 -572700291 572700290 572701016 572701918 -572701917 572708975 -572708974 -572700235 -572700218 572701854 -572701853 572708982 -572708979 -572708980"/>
    </vehicle>
    <vehicle id="veh8" type="passenger" depart="8.00" departLane="best">
        <route edges="571722517 -571732254 571705589 571707283 571720956 571720957 571720959 -571720960 571705600 -571701446 -572700282 -572700253 572700254 572718196 -572718198 -572707428 -572700194 572700195 572706674 -572707028 -572702839 572705558 -572705557 572700964 572714142 -572713950 572702831 572701703 572707895 572707900 -572707898 572707897"/>
    </vehicle>
    <vehicle id="veh9" type="passenger" depart="9.00" departLane="best">
        <route edges="-572712228 572710897 -572710898 -572702202 572710926 -572710925 572710921 572710931 572710930"/>
    </vehicle>
    <vehicle id="veh10" type="passenger" depart="10.00" departLane="best">
        <route edges="572708931 -572708930 -572708518 572700325 572702003 -572702002 -572700323 572700322 572708585 -572708586 572700355 -572701554 572702861 -572702860 572707144 572713305 -572713306 -572707305 572707146 572707148 572710784 -572710785 572711050 -572711049 572711039 -572711040 572714685 -572714683 572700493 572700511 572700516 -572700549 572700548 -572701252 -572700543 572700544 -572701501 -572700554 572700553 -572700601 572700600 572718042 -572718043 572718050 -572718049 -572705333 572712744 -572712745 572718027 -572718028 -572718072 572718017 -572718018 572700747 -572700747 -572717973 572713551 -572713552"/>
    </vehicle>
    <vehicle id="veh11" type="passenger" depart="11.00" departLane="best">
        <route edges="-572705461 -572705456 -572705455 -572705402 572715431 -572715432 -572715430 -572705514 572705753 -572705754 -572705694 -572705693 572705720 572706803 -572706804 -572705922 572705924 -572705925 -572702064 -572700088 -572700083 -572700079 -572700074 572700076 572706779 -572714635 -572714640 572700077 572714629 -572714630 572715300 -572715301 572706059 -572706060 572702747 572702855 -572702854 572700207 572700233 572700246 572701798 -572701797 -572714118 -572705059 -572700571 572706922 -572706683 572704992 -572706895 -572706894 572700630 -572706685 -572701489 -572706926 -572700975 572706928 -572706892 572715060 -572715061 -572702214 572700953 -572706797 -572706799 572717961 -572717962 -572700568 572714642 -572700475 572711079 -572711080 -572702837 572711067 572717475 -572717476 -572705191 572704967 -572704966 -572701634 572704964 572705178 572717474 -572717473 572705184 -572705185 572712864 -572712863 572705181 -572705180 572707345 572707347"/>
    </vehicle>
    <vehicle id="veh12" type="passenger" depart="12.00" departLane="best">
        <route edges="-572701202 -572701194 572701195 572708129 572718181 -572718180 572701890 -572701891 572701886 -572701885 572701871 -572701872 572701870 -572701869 572715282 -572715283 572706680 -572706679 572700183 572701774 572701777 -572701776 572700166 572700193"/>
    </vehicle>
    <vehicle id="veh13" type="passenger" depart="13.00" departLane="best">
        <route edges="-572709184 572709195 572709197 572709201 572716532 -572717913 -572705382 572707021 572715384 -572715385 -572715380 -572715387 572700157 572700159 572701794 572715295 -572715294 -572701792 572703340 -572701784 572701776 -572701777 -572701774 -572700183 572703027 572714679 -572714680 572703032 572703034 572703036 572703059 -572703060"/>
    </vehicle>
    <vehicle id="veh14" type="passenger" depart="14.00" departLane="best">
        <route edges="-572702090 -572701183 -572700292 572700294 -572700267 572700266 -572700219 -572700161 572715379 -572715387 572700157 572700159 572701794 572715295 -572715294 -572701792 572703340 -572701784 572701776 -572701777 -572701774 -572700183 572706679 -572706680 572715283 -572715282 572709028 -572709029 -572700168 572700167 572700192 -572700191 572708828 -572708829 572708816 -572708815 572708818 -572708819 -572701769 -572700189 572700190 -572700179 572700178 -572700185 572700184 572707025 -572707024 572700187 572700196 572700218 572700235 572708974 -572708975 572701917 -572701918 572701849 -572701848 572701848"/>
    </vehicle>
    <vehicle id="veh15" type="passenger" depart="15.00" departLane="best">
        <route edges="-572716138 572703400 -572703401 572703403 -572703404 -572701790 -572700207 572702854 -572702855 -572702747 572706060 -572706059 572701792 572715294 -572715295 -572701794 -572700159 -572700157 572715387 -572707159 572709098 -572709097 572709087 -572709088 572706981 572705923 572706804 -572706803 -572705720 572705693 572705694 572705754 -572705753 572705514 572705760 -572705759 572714497 572714506 -572714505 -572705417 572705414 -572705413 572705752 572705944 -572715471 572705411 572706257 -572706258 572707777"/>
    </vehicle>
    <vehicle id="veh16" type="passenger" depart="16.00" departLane="best">
        <route edges="572702595 -572702597 -572702593 -572702590 572700756 -571702083 571702082 572700752 572705047 572705050 -572705049 572705049 -572705048 572705051 -572705052 -572700750 571702070 571722340 -571722339 571703423 -571707198 -571701985 571701983 572700660 572701062 572711119 -572711120 572707358 572711122 572711131 -572711130 572702623 -572702622 572712906 -572712907 -572707345 572705180 -572705181 572712863 -572712864 572705185 -572705184 572716296 -572716297 572701291 -572700475 572711079 -572711080 -572702837 572711067 572717475 -572717476 -572705191 572704967 572704969 572706669 572702645 -572702646 572705174 572711060 -572711059 -572705165 572700447 572701548 572702649 -572702648 572700412 -572700397 572712542 -572712541 572702014 -572702013 572700331 -572701205 572701204 -572700291 572700290 572701016 572701918 -572701917 572708562 -572708563 572700265 572708971 -572708970 572708545 572708548 572708955 -572708956 572708952 -572708951 572708525 -572708526 -572708524 572702007 -572702006 572700259 572704519 -572704520 -572701167 572701167"/>
    </vehicle>
    <vehicle id="veh17" type="passenger" depart="17.00" departLane="best">
        <route edges="572710825 -572710825 -572702132 -572700396 572712518 -572712519 -572710804 572707141 -572707140 572702860 -572702861 572701554 -572700355 572708586 -572708585 -572700322 572701972 -572701971 572701968 -572701969 -572700503 572708887 -572708888 572701172 -572700841 -572700276 572709048 -572709049 -572703408 572702705 572708352 -572708351 -572701173 -572700271 -572700237 572700238 -572700241 572701890 -572701891 572701886 -572701885 572701871 -572701872 572701870 -572701869 572715282 -572715283 572706680 -572706679 572700183 572701774 572701777 -572701776 572703415 -572703416"/>
    </vehicle>
    <vehicle id="veh18" type="passenger" depart="18.00" departLane="best">
        <route edges="572708388 572708386 572708402 -572708403 -572708400 -572708385 -572701196 572708406 -572708405 -572700272 572700274 -572700335 572707308 -572707309 572716234 -572716235 572704555 -572704556 572700385 -572700402 572700400 572700452 572700483 572700529 572710614 -572710613 572700554 572701501 -572700544 572700543 572701252 -572700548 572700547 572705144 -572705145 -572705143 -572702714 572700639 572700661 572712712 572712716 -572712717 -572712714 572700683 572712696 572713642 -572713643 -572713640 -572712786 572702902 -572702903 572712793 572712796 -572712795 -572700772 -572700768 572707138 -572700760 572700761 572714756 -572714757 -572705364 -572700744 572714759 -572714760 572705049 -572705048 572705051 -572705052 572714778 -572714779 -572700732 -571707197"/>
    </vehicle>
    <vehicle id="veh19" type="passenger" depart="19.00" departLane="best">
        <route edges="-572710603 -572710600 572702164 -572702163 -572700482 572700483 572700529 572710614 -572710613 572700554 572701501 -572700544 572700543 572701252 -572700548 572700547 572705144 -572705145 -572705143 -572706799 572717961 -572717962 -572700568 572714642 -572700475 572711079 -572711080 -572702837 572711067 572717475 -572717476 -572705191 572704967 572704969 572706669 572702645 -572702646 572705174 572711060 -572711059 -572705165 572700447 572701548 572702649 -572702648 572700411 572702121 572702205"/>
    </vehicle>
    <vehicle id="veh20" type="passenger" depart="20.00" departLane="best">
        <route edges="572712670 -572712671 -572700769 572711356 572712667 -572712666 572712663 -572712664 -572712661 572712679 -572712680 572713602 -572713601 572713591 572713617 -572713616 -572700730 572715032 -572715033 -572702241 -572700714 572700716 -572700738 572702285 572702289"/>
    </vehicle>
    <vehicle id="veh21" type="passenger" depart="21.00" departLane="best">
        <route edges="-572701886 572701891 -572701890 572718180 -572718181 -572708129 -572701195 -572700272 572700274 -572700335 572707308 -572707309 572716234 -572716235 572704555 -572704556 572700385 -572700402 572700400 572700452 572700483 572700529 572710614 -572710613 572700553 -572700601 572700600 572718042 -572718043 572718050 -572718049 -572705333 572712744 -572712745 572718027 -572718028 -572718072 572718017 -572718018 572700747 -572700747 -572717973 572713551 572713555 -572713556 572713558 -572713557 -572712590"/>
    </vehicle>
    <vehicle id="veh22" type="passenger" depart="22.00" departLane="best">
        <route edges="572705940 572707778 -572707777 572706258 -572706257 -572705411 572715471 -572705944 -572705752 572705413 572705418 572714505 -572714506 -572714497 572705759 -572705760 -572705514 572705753 -572705754 -572705694 -572705693 572705720 572706803 -572706804 -572705922 572705924 -572705925 -572702064 -572700088 -572700083 -572700079 -572700074 572700076 572706779 -572714635 -572714640 572700077 572714629 -572714630 572715300 -572715301 572703340 -572701784 572701776 -572701777 -572701774 -572700183 572706679 -572706680 572715283 -572715282 572701869 -572701870 572701872 -572701871 572701885 -572701886 572701891 -572701890 572718180 -572718181 -572708129 -572701195 -572700272 572700274 -572700335 572707308 -572707309 572716234 -572716235 572704555 -572704556 572700385 -572700402 572700400 572700452 572700483 572700529 572710614 -572710613 572700553 -572701495 572710620 -572710621 572710629"/>
    </vehicle>
    <vehicle id="veh23" type="passenger" depart="23.00" departLane="best">
        <route edges="572710743 -572710746 -572710740 -572701224 572707149 572714685 -572714683 572700493 572700511 572700516 -572700549 572700548 -572701252 -572700543 572700544 -572701501 -572700554 572700553 -572700601 572700600 572718042 -572718043 572718050 -572718049 -572705333 572712744 -572712745 572718027 -572718028 -572718072 572718017 -572718018 572718014 -572718015 572700766 572718007 572700787 572718002 -572700814 572700812 572700817 572715012 572715011"/>
    </vehicle>
    <vehicle id="veh24" type="passenger" depart="24.00" departLane="best">
        <route edges="-572712677 -572712674 572712688 -572712687 572712691 572715030 -572715029 572715027 -572715028 -572713598 572713591 572713617 -572713616 -572700730 -572700683 572712714 572712717 -572712716 -572712712 -572700661 -572700639 572702714 -572706799 572717961 -572717962 -572700568 572714642 -572700475 572711079 -572711080 -572702837 572711067 572717475 -572717476 -572705191 572704967 572704969 572706669 572702645 -572702646 572705174 572711060 -572711059 -572705165 572700447 572701548 572702649 -572702648 572700412 -572700397 572712542 -572712541 572702014 -572702013 572700331 -572701205 572701204 -572700291 572700290 572701016 572701918 -572701917 572708975 -572708974 -572700235 -572700218 -572700196 -572700187 572701836 -572701837 -572701587 572717691"/>
    </vehicle>
    <vehicle id="veh25" type="passenger" depart="25.00" departLane="best">
        <route edges="-572712258 -572702641 572700370 572700377 -572700320 572700319 572700331 -572701205 572701204 -572700291 572700290 572701016 572701918 -572701917 572708975 -572708974 -572700235 -572700218 -572700196 -572700187 572707024 -572707025 -572700184 572700185 -572700178 572700179 -572700190 572700189 572701769 572708819 -572708818 572708815 -572708816 572708829 -572708828 572700191 -572700192 -572700167 572700168 572709029 -572709028 572715282 -572715283 572706680 -572706679 572700183 572701774 572701777 -572701776 572701784 -572703340 572701792 572715294 -572715295 -572701794 -572700159 -572700157 572715387 -572715379 572700162"/>
    </vehicle>
    <vehicle id="veh26" type="passenger" depart="26.00" departLane="best">
        <route edges="-572716152 572716157 572716155 572716162 -572716161 -572716147 -572716143 -572716139 -572702978 572703497 -572703498 -572703374 572701783 -572701782 572700206 572703045 -572703046 -572700288 572708126 -572708125 572700204 -572700240 572700241 -572700238 572700237 572700271 572701173 572708351 -572708352 -572702705 572703408 572709049 -572709048 572700276 572700841 -572701172 572708888 -572708887 572700503 572701969 -572701968 572701971 -572701972 572700322 572708585 -572708586 572700355 -572701554 572702861 -572702860 572707139 572708411 -572708410 -572702000 572700356 572702005 572708416 572708491 -572708490 572700348 572702028 -572702027 572702947 -572702949"/>
    </vehicle>
    <vehicle id="veh27" type="passenger" depart="27.00" departLane="best">
        <route edges="572700349 572702026 -572702028 -572700348 572708490 -572708491 -572708416 -572702005 -572700356 572702000 572708410 -572708411 -572707139 572707144 572713305 -572713306 -572707305 572707146 572707148 572710784 -572710785 572711050 -572711049 572711039 -572711040 572714685 -572714683 572700493 572700511 572700516 -572700549 572700548 -572701252 -572700543 572700544 -572701501 -572700554 572700553 -572700601 572700600 572718042 -572718043 -572718032 572700979 -572700664 572700663 572704728 -572704727 572700668 -572700679 572711426 -572711427 -572700950 572705038 572713544 -572713543 572704758 572704763 -572704764 572704762"/>
    </vehicle>
    <vehicle id="veh28" type="passenger" depart="28.00" departLane="best">
        <route edges="571722343 -571722343 -571702085 571702082 572700752 572705047 572705050 -572705049 572714760 572714788 -572714789 572714790 -572714787"/>
    </vehicle>
    <vehicle id="veh29" type="passenger" depart="29.00" departLane="best">
        <route edges="572706671 572702645 -572702646 572705174 572711060 -572711059 -572705165 572700447 572701548 572702649 -572702648 572700412 -572700397 572712542 -572712541 572702014 -572702013 572700331 -572701205 572701204 -572700291 572700290 572701016 572701918 -572701917 572708975 -572708974 -572700235 -572700218 572701854 -572701853 572708982 -572708983 572708976"/>
    </vehicle>
    <vehicle id="veh30" type="passenger" depart="30.00" departLane="best">
        <route edges="572708561 -572708565 -572701918 -572701016 -572700290 572700291 -572701204 572701205 -572700331 572702015 -572702016 572700341 572708418 -572708419 -572702034 572702030 -572702031 -572700348 572708490 -572708491 -572708416 -572702005 -572700356 572702000 572708410 -572708411 -572707139 572707144 572713305 -572713306 -572707305 572707146 572707148 572710784 -572710785 572711050 -572711049 572711039 -572711040 572714685 -572707150 -572700435 572700436 -572701541 -572700453 572700451 572710638 -572710637 572700472 572704716 -572704715 -572700429 572700428 572700432 -572700500 572704672 -572704673 572704614 572704616 572704619 572704637 -572704636 572704631 -572704630 572704624 572704627"/>
    </vehicle>
    <vehicle id="veh31" type="passenger" depart="31.00" departLane="best">
        <route edges="572701096 -572700118 572700116 -572700110 572700112 572701430 572701433 -572700104 572714629 -572714630 572715300 -572715301 572706059 -572706060 572702747 572702855 -572702854 572700207 572701790 572703404 -572703403 572703401 -572703400 572716138 -572716139 -572702978 572703497 -572703498 572703498"/>
    </vehicle>
    <vehicle id="veh32" type="passenger" depart="32.00" departLane="best">
        <route edges="-572715130 -572700402 572700400 572700453 572701541 -572700436 572700435 572707150 -572714685 572711040 -572711039 572711049 -572711050 572710785 -572710784 -572707148 -572707146 572707305 572713306 -572713305 -572707144 572707139 572708411 -572708410 -572702000 572700356 572702005 572708416 572708491 -572708490 572700348 572702031 -572702030 572702034 572708419 -572708418 -572700341 572702016 -572702015 -572700319 572700320 -572700377 -572700370 572702652 -572702651 571701563 571720958 571720959 -571720960 571705600 -571701446 -572700282 -572700253 572717854 572717853"/>
    </vehicle>
    <vehicle id="veh33" type="passenger" depart="33.00" departLane="best">
        <route edges="-572711387 -572711382 572711429 -572711430 572711439 572711447 -572711446 572700679 -572700668 572704727 -572704728 -572700975 572718037 -572718038 572700601 -572700553 572700554 572701501 -572700544 572700543 572701252 -572700548 572700549 -572700516 -572700511 -572700493 572711020 -572711021 -572711018 -572702201 572711000 -572711001 572711023 572712504 -572712503 572710940 572710951 -572710950"/>
    </vehicle>
    <vehicle id="veh34" type="passenger" depart="34.00" departLane="best">
        <route edges="572703414 572703416 -572703415 572701776 -572701777 -572701774 -572700183 572706679 -572706680 572715283 -572715282 572709028 -572709029 -572700168 572700167 572700192 -572700191 572708828 -572708829 572708816 -572708815 572708818 -572708819 -572701769 -572700189 572700190 -572700179 572700178 -572700185 572700184 572707025 -572707024 572700187 572700196 572700218 572700235 572708974 -572708975 572701917 -572701918 -572701016 -572700290 572700291 572708449"/>
    </vehicle>
    <vehicle id="veh35" type="passenger" depart="35.00" departLane="best">
        <route edges="572702634 -572702633 -572702014 572712541 -572712542 572700397 -572700412 572702648 -572702649 -572701548 -572700447 572700445 572705167 572713567 -572713566 572715103 -572715104 -572705170 572711071 -572711070 572711067 572717475 -572717476 -572705191 572704967 -572704966 -572701634 572704964 572705178 572717474 -572717473 572705184 -572705185 572712864 -572712863 572705181 -572705180 572707345 572712907 -572712906 572702622 -572702623 572711130 -572711131 -572711122 -572707358 572711120 -572711119 -572701062 -572700660 -571701983 571701984 572711106 572713191 -572713192 -572711109 572711274 -572711275 -572711200 572711194 -572711193 -572700675 572706433 572706441"/>
    </vehicle>
    <vehicle id="veh36" type="passenger" depart="36.00" departLane="best">
        <route edges="-571707297 -571701600 572712257 -572712258 -572702641 572700370 572700377 -572700320 572700319 572700331 -572701205 572701204 -572700291 572700290 572701016 572701918 -572701917 572708975 -572708974 -572700235 -572700218 -572700196 -572700187 572707024 -572707025 -572700184 572700185 -572700178 572700179 -572700190 572700189 572701769 572708819 -572708818 572708815 -572708816 572708826 -572708827 -572708814 572708835 -572708834 572717858 -572717859 -572701878 572701878"/>
    </vehicle>
    <vehicle id="veh37" type="passenger" depart="37.00" departLane="best">
        <route edges="572704970 -572704971 571706231 571712550 -571712549 -572701065 572701064 572705174 572705177 -572705175 572717538 -572717539 -572702749 572704967 -572704966 -572701634 572704964 572705178 572717474 -572717473 572705184 -572705185 572712864 -572712863 572705181 -572705180 572707345 572712907 -572712906 572702622 -572702623 572711130 -572711131 -572711122 -572707358 572711120 -572711119 -572701062 572701061"/>
    </vehicle>
    <vehicle id="veh38" type="passenger" depart="38.00" departLane="best">
        <route edges="572710633 -572710630 -572710632 -572702184 572700654 -572706925 572700642 572706684 572704996 -572706893 572712563 -572712562 572706932 572706682 572705619 572707014 572705059 572714118 572713728 -572713729 572713744 -572713745 -572713740 -572713735"/>
    </vehicle>
    <vehicle id="veh39" type="passenger" depart="39.00" departLane="best">
        <route edges="-572702320 572700760 -572707138 572700768 572700772 572712795 -572712796 -572712793 572702903 -572702902 572712786 572713640 572713643 -572713642 -572712696 -572700683 572712714 572712717 -572712716 -572712712 -572700661 -572700639 572702714 -572706800 -572700626 572700628 572705260 -572705259 572706891 -572718032 572700979 -572700664 572700663 -572706925 572700642 572706684 572704996 -572706893 572712563 -572712562 572706932 572706682 572705619 572707014 572705059 572714118 572701797 -572701798 -572700246 -572700233 -572700207 572702854 -572702855 -572702747 572706060 -572706059 572701792 572715294 -572715295 -572701794 -572700159 -572700157 572715387 572715380 572715385 -572715384 -572707021 572705382 572717913 -572716532 -572709201 -572709197 -572709195 572709184 572709186"/>
    </vehicle>
    <vehicle id="veh40" type="passenger" depart="40.00" departLane="best">
        <route edges="-572706866 -572706864 572715384 -572715385 -572715380 -572715387 572700157 572700159 572701794 572715295 -572715294 -572701792 572706059 -572706060 572702747 572702855 -572702854 572700207 572700233 572700246 572701798 -572701797 -572714118 -572705059 -572700571 572706922 -572706683 572704992 -572706895 -572706894 572700630 -572706685 -572701489 -572706926 -572700975 572706928 -572706892 572715060 -572715061 -572702214 572700953 -572706797 -572706799 572717961 -572717962 -572700568 572714642 -572700475 572711079 -572711080 -572702837 572711067 572717475 -572717476 -572705191 572704967 -572704966 -572701634 572704964 572705178 572717474 -572717473 572705184 -572705185 572712864 -572712863 572705181 -572705180 572707345 572712907 -572712906 572712908 -572712909 572711154 -572711153 572711152 572711161 572711168 -572711169 572711165 572711164"/>
    </vehicle>
    <vehicle id="veh41" type="passenger" depart="41.00" departLane="best">
        <route edges="572701566 -572700284 572705915 -572705916 572715399 -572715400 572715396 -572715397 572715185 -572715184 572709074 572713308 572713693 572713706 572713712 572713726 572713729 -572713728 -572714118 -572705059 -572700571 572706922 -572706683 572704992 -572706895 -572706894 572700630 -572706685 -572701489 -572706926 -572700975 572706928 572718050 -572718049 -572705333 572712744 -572712745 572718027 -572718028 -572718072 572718017 -572718018 572718014 -572718015 572700766 572718007 572700787 572718002 -572700814 572700814 -572706077 -572703798 572706072 -572706071 572705431 -572705432 572703822 572703919 -572703918 -572703799 572703802 -572703804"/>
    </vehicle>
    <vehicle id="veh42" type="passenger" depart="42.00" departLane="best">
        <route edges="572709082 -572709083 -572700075 572700076 572706779 -572714635 -572714640 572700077 572714629 -572714630 572715300 -572715301 572706059 -572706060 572702747 572702855 -572702854 572700207 572701790 572703404 -572703403 572703401 -572703400 572716138 -572716139 -572702978 572703497 -572703498 -572703374 572700243 572700303 572701825 -572701824"/>
    </vehicle>
    <vehicle id="veh43" type="passenger" depart="43.00" departLane="best">
        <route edges="572701224 -572701224 572707149 572714685 -572707150 -572700435 572700436 -572701541 -572700453 -572700400 572700402 -572700385 572704556 -572704555 572716235 -572716234 572707309 -572707308 572700335 -572700274 572700272 572701195 572708129 572718181 572718185 -572718185"/>
    </vehicle>